raw_files/raw_files_6n/48Bus.raw
 0,    100.00, 33, 0, 0, 60.00       / October 01, 2013 15:59:49


    1,'Bus1', 230.0000,3,   1,   1,   1,1.02531,   0.0000
    2,'Bus 2', 230.0000,2,   1,   1,   1,1.02683,   3.7961
    3,'Bus 3', 230.0000,2,   1,   1,   1,1.03269,   2.4448
    5,'Bus 5', 230.0000,1,   1,   1,   1,0.99972,  -3.6802
    6,'Bus 6', 230.0000,1,   1,   1,   1,1.01225,  -3.5666
    8,'Bus 8', 230.0000,1,   1,   1,   1,1.01727,   1.3373
    11,'Bus 11',230.0000,2,   1,   1,   1,1.02531,  -2.2174
    12,'Bus 12',230.0000,2,   1,   1,   1,1.02683,   3.7961
    13,'Bus 13',230.0000,2,   1,   1,   1,1.03269,   2.4448
    15,'Bus 15',230.0000,1,   1,   1,   1,0.99972,  -3.6802
    16,'Bus 16',230.0000,1,   1,   1,   1,1.01225,  -3.5666
    18,'Bus 18',230.0000,1,   1,   1,   1,1.01727,   1.3373
    21,'Bus 21',230.0000,2,   1,   1,   1,1.02531,  -2.2174
    22,'Bus 22',230.0000,2,   1,   1,   1,1.02683,   3.7961
    23,'Bus 23',230.0000,2,   1,   1,   1,1.03269,   2.4448
    25,'Bus 25',230.0000,1,   1,   1,   1,0.99972,  -3.6802
    26,'Bus 26',230.0000,1,   1,   1,   1,1.01225,  -3.5666
    28,'Bus 28',230.0000,1,   1,   1,   1,1.01727,   1.3373
    31,'Bus 31',230.0000,2,   1,   1,   1,1.02531,  -2.2174
    32,'Bus 32',230.0000,2,   1,   1,   1,1.02683,   3.7961
    33,'Bus 33',230.0000,2,   1,   1,   1,1.03269,   2.4448
    35,'Bus 35',230.0000,1,   1,   1,   1,0.99972,  -3.6802
    36,'Bus 36',230.0000,1,   1,   1,   1,1.01225,  -3.5666
    38,'Bus 38',230.0000,1,   1,   1,   1,1.01727,   1.3373
    41,'Bus 41',230.0000,2,   1,   1,   1,1.02531,  -2.2174
    42,'Bus 42',230.0000,2,   1,   1,   1,1.02683,   3.7961
    43,'Bus 43',230.0000,2,   1,   1,   1,1.03269,   2.4448
    45,'Bus 45',230.0000,1,   1,   1,   1,0.99972,  -3.6802
    46,'Bus 46',230.0000,1,   1,   1,   1,1.01225,  -3.5666
    48,'Bus 48',230.0000,1,   1,   1,   1,1.01727,   1.3373
    51,'Bus 51',230.0000,2,   1,   1,   1,1.02531,  -2.2174
    52,'Bus 52',230.0000,2,   1,   1,   1,1.02683,   3.7961
    53,'Bus 53',230.0000,2,   1,   1,   1,1.03269,   2.4448
    55,'Bus 55',230.0000,1,   1,   1,   1,0.99972,  -3.6802
    56,'Bus 56',230.0000,1,   1,   1,   1,1.01225,  -3.5666
    58,'Bus 58',230.0000,1,   1,   1,   1,1.01727,   1.3373
    61,'Bus 61',230.0000,2,   1,   1,   1,1.02531,  -2.2174
    62,'Bus 62',230.0000,2,   1,   1,   1,1.02683,   3.7961
    63,'Bus 63',230.0000,2,   1,   1,   1,1.03269,   2.4448
    65,'Bus 65',230.0000,1,   1,   1,   1,0.99972,  -3.6802
    66,'Bus 66',230.0000,1,   1,   1,   1,1.01225,  -3.5666
    68,'Bus 68',230.0000,1,   1,   1,   1,1.01727,   1.3373
    71,'Bus 71',230.0000,2,   1,   1,   1,1.02531,  -2.2174
    72,'Bus 72',230.0000,2,   1,   1,   1,1.02683,   3.7961
    73,'Bus 73',230.0000,2,   1,   1,   1,1.03269,   2.4448
    75,'Bus 75',230.0000,1,   1,   1,   1,0.99972,  -3.6802
    76,'Bus 76',230.0000,1,   1,   1,   1,1.01225,  -3.5666
    78,'Bus 78',230.0000,1,   1,   1,   1,1.01727,   1.3373
0 / END OF BUS DATA, BEGIN LOAD DATA
    5,'1 ',1,   1,   1,   125.000,    50.000,     0.000,     0.000,     0.000,    -0.000,   1,1
    6,'1 ',1,   1,   1,   90.000,    30.000,     0.000,     0.000,     0.000,    -0.000,   1,1
    8,'1 ',1,   1,   1,   100.000,    35.000,     0.000,     0.000,     0.000,    -0.000,   1,1
    15,'1 ',1,   1,   1,   125.000,    50.000,     0.000,     0.000,     0.000,    -0.000,   1,1
    16,'1 ',1,   1,   1,   90.000,    30.000,     0.000,     0.000,     0.000,    -0.000,   1,1
    18,'1 ',1,   1,   1,   100.000,    35.000,     0.000,     0.000,     0.000,    -0.000,   1,1
    25,'1 ',1,   1,   1,   125.000,    50.000,     0.000,     0.000,     0.000,    -0.000,   1,1
    26,'1 ',1,   1,   1,   90.000,    30.000,     0.000,     0.000,     0.000,    -0.000,   1,1
    28,'1 ',1,   1,   1,   100.000,    35.000,     0.000,     0.000,     0.000,    -0.000,   1,1
    35,'1 ',1,   1,   1,   125.000,    50.000,     0.000,     0.000,     0.000,    -0.000,   1,1
    36,'1 ',1,   1,   1,   90.000,    30.000,     0.000,     0.000,     0.000,    -0.000,   1,1
    38,'1 ',1,   1,   1,   100.000,    35.000,     0.000,     0.000,     0.000,    -0.000,   1,1
    45,'1 ',1,   1,   1,   125.000,    50.000,     0.000,     0.000,     0.000,    -0.000,   1,1
    46,'1 ',1,   1,   1,   90.000,    30.000,     0.000,     0.000,     0.000,    -0.000,   1,1
    48,'1 ',1,   1,   1,   100.000,    35.000,     0.000,     0.000,     0.000,    -0.000,   1,1
    55,'1 ',1,   1,   1,   125.000,    50.000,     0.000,     0.000,     0.000,    -0.000,   1,1
    56,'1 ',1,   1,   1,   90.000,    30.000,     0.000,     0.000,     0.000,    -0.000,   1,1
    58,'1 ',1,   1,   1,   100.000,    35.000,     0.000,     0.000,     0.000,    -0.000,   1,1
    65,'1 ',1,   1,   1,   125.000,    50.000,     0.000,     0.000,     0.000,    -0.000,   1,1
    66,'1 ',1,   1,   1,   90.000,    30.000,     0.000,     0.000,     0.000,    -0.000,   1,1
    68,'1 ',1,   1,   1,   100.000,    35.000,     0.000,     0.000,     0.000,    -0.000,   1,1
    75,'1 ',1,   1,   1,   125.000,    50.000,     0.000,     0.000,     0.000,    -0.000,   1,1
    76,'1 ',1,   1,   1,   90.000,    30.000,     0.000,     0.000,     0.000,    -0.000,   1,1
    78,'1 ',1,   1,   1,   100.000,    35.000,     0.000,     0.000,     0.000,    -0.000,   1,1
0 / END OF LOAD DATA, BEGIN FIXED SHUNT DATA
0 / END OF FIXED SHUNT DATA, BEGIN GENERATOR DATA
    1,'1 ',    71.627,    27.915,  9900.000, -9900.000,1.04000,    0,   500.000,   0.00000,   1.00000,   0.00000,   0.00000,1.00000,1,  100.0,   450.000,     0.000,   1,1.0000,   0,1.0000,   0,1.0000,   0,1.0000,0, 1.0000
    2,'1 ',   163.000,     4.903,  9900.000, -9900.000,1.02500,    0,   250.000,   0.00000,   1.00000,   0.00000,   0.00000,1.00000,1,  100.0,   240.000,     0.000,   1,1.0000,   0,1.0000,   0,1.0000,   0,1.0000,0, 1.0000
    3,'1 ',    85.000,   -11.449,  9900.000, -9900.000,1.02500,    0,   100.000,   0.00000,   1.00000,   0.00000,   0.00000,1.00000,1,  100.0,    90.000,     0.000,   1,1.0000,   0,1.0000,   0,1.0000,   0,1.0000,0, 1.0000
    11,'1 ',    71.627,    27.915,  9900.000, -9900.000,1.04000,    0,   500.000,   0.00000,   1.00000,   0.00000,   0.00000,1.00000,1,  100.0,   450.000,     0.000,   1,1.0000,   0,1.0000,   0,1.0000,   0,1.0000,0, 1.0000
    12,'1 ',   163.000,     4.903,  9900.000, -9900.000,1.02500,    0,   250.000,   0.00000,   1.00000,   0.00000,   0.00000,1.00000,1,  100.0,   240.000,     0.000,   1,1.0000,   0,1.0000,   0,1.0000,   0,1.0000,0, 1.0000
    13,'1 ',    85.000,   -11.449,  9900.000, -9900.000,1.02500,    0,   100.000,   0.00000,   1.00000,   0.00000,   0.00000,1.00000,1,  100.0,    90.000,     0.000,   1,1.0000,   0,1.0000,   0,1.0000,   0,1.0000,0, 1.0000
    21,'1 ',    71.627,    27.915,  9900.000, -9900.000,1.04000,    0,   500.000,   0.00000,   1.00000,   0.00000,   0.00000,1.00000,1,  100.0,   450.000,     0.000,   1,1.0000,   0,1.0000,   0,1.0000,   0,1.0000,0, 1.0000
    22,'1 ',   163.000,     4.903,  9900.000, -9900.000,1.02500,    0,   250.000,   0.00000,   1.00000,   0.00000,   0.00000,1.00000,1,  100.0,   240.000,     0.000,   1,1.0000,   0,1.0000,   0,1.0000,   0,1.0000,0, 1.0000
    23,'1 ',    85.000,   -11.449,  9900.000, -9900.000,1.02500,    0,   100.000,   0.00000,   1.00000,   0.00000,   0.00000,1.00000,1,  100.0,    90.000,     0.000,   1,1.0000,   0,1.0000,   0,1.0000,   0,1.0000,0, 1.0000
    31,'1 ',    71.627,    27.915,  9900.000, -9900.000,1.04000,    0,   500.000,   0.00000,   1.00000,   0.00000,   0.00000,1.00000,1,  100.0,   450.000,     0.000,   1,1.0000,   0,1.0000,   0,1.0000,   0,1.0000,0, 1.0000
    32,'1 ',   163.000,     4.903,  9900.000, -9900.000,1.02500,    0,   250.000,   0.00000,   1.00000,   0.00000,   0.00000,1.00000,1,  100.0,   240.000,     0.000,   1,1.0000,   0,1.0000,   0,1.0000,   0,1.0000,0, 1.0000
    33,'1 ',    85.000,   -11.449,  9900.000, -9900.000,1.02500,    0,   100.000,   0.00000,   1.00000,   0.00000,   0.00000,1.00000,1,  100.0,    90.000,     0.000,   1,1.0000,   0,1.0000,   0,1.0000,   0,1.0000,0, 1.0000
    41,'1 ',    71.627,    27.915,  9900.000, -9900.000,1.04000,    0,   500.000,   0.00000,   1.00000,   0.00000,   0.00000,1.00000,1,  100.0,   450.000,     0.000,   1,1.0000,   0,1.0000,   0,1.0000,   0,1.0000,0, 1.0000
    42,'1 ',   163.000,     4.903,  9900.000, -9900.000,1.02500,    0,   250.000,   0.00000,   1.00000,   0.00000,   0.00000,1.00000,1,  100.0,   240.000,     0.000,   1,1.0000,   0,1.0000,   0,1.0000,   0,1.0000,0, 1.0000
    43,'1 ',    85.000,   -11.449,  9900.000, -9900.000,1.02500,    0,   100.000,   0.00000,   1.00000,   0.00000,   0.00000,1.00000,1,  100.0,    90.000,     0.000,   1,1.0000,   0,1.0000,   0,1.0000,   0,1.0000,0, 1.0000
    51,'1 ',    71.627,    27.915,  9900.000, -9900.000,1.04000,    0,   500.000,   0.00000,   1.00000,   0.00000,   0.00000,1.00000,1,  100.0,   450.000,     0.000,   1,1.0000,   0,1.0000,   0,1.0000,   0,1.0000,0, 1.0000
    52,'1 ',   163.000,     4.903,  9900.000, -9900.000,1.02500,    0,   250.000,   0.00000,   1.00000,   0.00000,   0.00000,1.00000,1,  100.0,   240.000,     0.000,   1,1.0000,   0,1.0000,   0,1.0000,   0,1.0000,0, 1.0000
    53,'1 ',    85.000,   -11.449,  9900.000, -9900.000,1.02500,    0,   100.000,   0.00000,   1.00000,   0.00000,   0.00000,1.00000,1,  100.0,    90.000,     0.000,   1,1.0000,   0,1.0000,   0,1.0000,   0,1.0000,0, 1.0000
    61,'1 ',    71.627,    27.915,  9900.000, -9900.000,1.04000,    0,   500.000,   0.00000,   1.00000,   0.00000,   0.00000,1.00000,1,  100.0,   450.000,     0.000,   1,1.0000,   0,1.0000,   0,1.0000,   0,1.0000,0, 1.0000
    62,'1 ',   163.000,     4.903,  9900.000, -9900.000,1.02500,    0,   250.000,   0.00000,   1.00000,   0.00000,   0.00000,1.00000,1,  100.0,   240.000,     0.000,   1,1.0000,   0,1.0000,   0,1.0000,   0,1.0000,0, 1.0000
    63,'1 ',    85.000,   -11.449,  9900.000, -9900.000,1.02500,    0,   100.000,   0.00000,   1.00000,   0.00000,   0.00000,1.00000,1,  100.0,    90.000,     0.000,   1,1.0000,   0,1.0000,   0,1.0000,   0,1.0000,0, 1.0000
    71,'1 ',    71.627,    27.915,  9900.000, -9900.000,1.04000,    0,   500.000,   0.00000,   1.00000,   0.00000,   0.00000,1.00000,1,  100.0,   450.000,     0.000,   1,1.0000,   0,1.0000,   0,1.0000,   0,1.0000,0, 1.0000
    72,'1 ',   163.000,     4.903,  9900.000, -9900.000,1.02500,    0,   250.000,   0.00000,   1.00000,   0.00000,   0.00000,1.00000,1,  100.0,   240.000,     0.000,   1,1.0000,   0,1.0000,   0,1.0000,   0,1.0000,0, 1.0000
    73,'1 ',    85.000,   -11.449,  9900.000, -9900.000,1.02500,    0,   100.000,   0.00000,   1.00000,   0.00000,   0.00000,1.00000,1,  100.0,    90.000,     0.000,   1,1.0000,   0,1.0000,   0,1.0000,   0,1.0000,0, 1.0000
0 / END OF GENERATOR DATA, BEGIN BRANCH DATA
    5,    1,'1 ', 0.01000, 0.06800,0.17600,   0.00,   0.00,   0.00,  0.00000,  0.00000,  0.00000,  0.00000,1,1,   0.0,   1,1.0000,   0,1.0000,   0,1.0000,   0,1.0000
    6,    1,'1 ', 0.01700, 0.09200,0.15800,   0.00,   0.00,   0.00,  0.00000,  0.00000,  0.00000,  0.00000,1,1,   0.0,   1,1.0000,   0,1.0000,   0,1.0000,   0,1.0000
    2,     5,'1 ', 0.03200, 0.16100,0.30600,   0.00,   0.00,   0.00,  0.00000,  0.00000,  0.00000,  0.00000,1,1,   0.0,   1,1.0000,   0,1.0000,   0,1.0000,   0,1.0000
    3,     6,'1 ', 0.03900, 0.17380,0.35800,   0.00,   0.00,   0.00,  0.00000,  0.00000,  0.00000,  0.00000,1,1,   0.0,   1,1.0000,   0,1.0000,   0,1.0000,   0,1.0000
    2,     8,'1 ', 0.00850, 0.05760,0.14900,   0.00,   0.00,   0.00,  0.00000,  0.00000,  0.00000,  0.00000,1,1,   0.0,   1,1.0000,   0,1.0000,   0,1.0000,   0,1.0000
    8,    3,'1 ', 0.01190, 0.10080,0.20900,   0.00,   0.00,   0.00,  0.00000,  0.00000,  0.00000,  0.00000,1,1,   0.0,   1,1.0000,   0,1.0000,   0,1.0000,   0,1.0000
    15,    11,'1 ', 0.01000, 0.06800,0.17600,   0.00,   0.00,   0.00,  0.00000,  0.00000,  0.00000,  0.00000,1,1,   0.0,   1,1.0000,   0,1.0000,   0,1.0000,   0,1.0000
    16,    11,'1 ', 0.01700, 0.09200,0.15800,   0.00,   0.00,   0.00,  0.00000,  0.00000,  0.00000,  0.00000,1,1,   0.0,   1,1.0000,   0,1.0000,   0,1.0000,   0,1.0000
    12,    15,'1 ', 0.03200, 0.16100,0.30600,   0.00,   0.00,   0.00,  0.00000,  0.00000,  0.00000,  0.00000,1,1,   0.0,   1,1.0000,   0,1.0000,   0,1.0000,   0,1.0000
    13,    16,'1 ', 0.03900, 0.17380,0.35800,   0.00,   0.00,   0.00,  0.00000,  0.00000,  0.00000,  0.00000,1,1,   0.0,   1,1.0000,   0,1.0000,   0,1.0000,   0,1.0000
    12,    18,'1 ', 0.00850, 0.05760,0.14900,   0.00,   0.00,   0.00,  0.00000,  0.00000,  0.00000,  0.00000,1,1,   0.0,   1,1.0000,   0,1.0000,   0,1.0000,   0,1.0000
    18,    13,'1 ', 0.01190, 0.10080,0.20900,   0.00,   0.00,   0.00,  0.00000,  0.00000,  0.00000,  0.00000,1,1,   0.0,   1,1.0000,   0,1.0000,   0,1.0000,   0,1.0000
    25,    21,'1 ', 0.01000, 0.06800,0.17600,   0.00,   0.00,   0.00,  0.00000,  0.00000,  0.00000,  0.00000,1,1,   0.0,   1,1.0000,   0,1.0000,   0,1.0000,   0,1.0000
    26,    21,'1 ', 0.01700, 0.09200,0.15800,   0.00,   0.00,   0.00,  0.00000,  0.00000,  0.00000,  0.00000,1,1,   0.0,   1,1.0000,   0,1.0000,   0,1.0000,   0,1.0000
    22,    25,'1 ', 0.03200, 0.16100,0.30600,   0.00,   0.00,   0.00,  0.00000,  0.00000,  0.00000,  0.00000,1,1,   0.0,   1,1.0000,   0,1.0000,   0,1.0000,   0,1.0000
    23,    26,'1 ', 0.03900, 0.17380,0.35800,   0.00,   0.00,   0.00,  0.00000,  0.00000,  0.00000,  0.00000,1,1,   0.0,   1,1.0000,   0,1.0000,   0,1.0000,   0,1.0000
    22,    28,'1 ', 0.00850, 0.05760,0.14900,   0.00,   0.00,   0.00,  0.00000,  0.00000,  0.00000,  0.00000,1,1,   0.0,   1,1.0000,   0,1.0000,   0,1.0000,   0,1.0000
    28,    23,'1 ', 0.01190, 0.10080,0.20900,   0.00,   0.00,   0.00,  0.00000,  0.00000,  0.00000,  0.00000,1,1,   0.0,   1,1.0000,   0,1.0000,   0,1.0000,   0,1.0000
    35,    31,'1 ', 0.01000, 0.06800,0.17600,   0.00,   0.00,   0.00,  0.00000,  0.00000,  0.00000,  0.00000,1,1,   0.0,   1,1.0000,   0,1.0000,   0,1.0000,   0,1.0000
    36,    31,'1 ', 0.01700, 0.09200,0.15800,   0.00,   0.00,   0.00,  0.00000,  0.00000,  0.00000,  0.00000,1,1,   0.0,   1,1.0000,   0,1.0000,   0,1.0000,   0,1.0000
    32,    35,'1 ', 0.03200, 0.16100,0.30600,   0.00,   0.00,   0.00,  0.00000,  0.00000,  0.00000,  0.00000,1,1,   0.0,   1,1.0000,   0,1.0000,   0,1.0000,   0,1.0000
    33,    36,'1 ', 0.03900, 0.17380,0.35800,   0.00,   0.00,   0.00,  0.00000,  0.00000,  0.00000,  0.00000,1,1,   0.0,   1,1.0000,   0,1.0000,   0,1.0000,   0,1.0000
    32,    38,'1 ', 0.00850, 0.05760,0.14900,   0.00,   0.00,   0.00,  0.00000,  0.00000,  0.00000,  0.00000,1,1,   0.0,   1,1.0000,   0,1.0000,   0,1.0000,   0,1.0000
    38,    33,'1 ', 0.01190, 0.10080,0.20900,   0.00,   0.00,   0.00,  0.00000,  0.00000,  0.00000,  0.00000,1,1,   0.0,   1,1.0000,   0,1.0000,   0,1.0000,   0,1.0000
    45,    41,'1 ', 0.01000, 0.06800,0.17600,   0.00,   0.00,   0.00,  0.00000,  0.00000,  0.00000,  0.00000,1,1,   0.0,   1,1.0000,   0,1.0000,   0,1.0000,   0,1.0000
    46,    41,'1 ', 0.01700, 0.09200,0.15800,   0.00,   0.00,   0.00,  0.00000,  0.00000,  0.00000,  0.00000,1,1,   0.0,   1,1.0000,   0,1.0000,   0,1.0000,   0,1.0000
    42,    45,'1 ', 0.03200, 0.16100,0.30600,   0.00,   0.00,   0.00,  0.00000,  0.00000,  0.00000,  0.00000,1,1,   0.0,   1,1.0000,   0,1.0000,   0,1.0000,   0,1.0000
    43,    46,'1 ', 0.03900, 0.17380,0.35800,   0.00,   0.00,   0.00,  0.00000,  0.00000,  0.00000,  0.00000,1,1,   0.0,   1,1.0000,   0,1.0000,   0,1.0000,   0,1.0000
    42,    48,'1 ', 0.00850, 0.05760,0.14900,   0.00,   0.00,   0.00,  0.00000,  0.00000,  0.00000,  0.00000,1,1,   0.0,   1,1.0000,   0,1.0000,   0,1.0000,   0,1.0000
    48,    43,'1 ', 0.01190, 0.10080,0.20900,   0.00,   0.00,   0.00,  0.00000,  0.00000,  0.00000,  0.00000,1,1,   0.0,   1,1.0000,   0,1.0000,   0,1.0000,   0,1.0000
    55,    51,'1 ', 0.01000, 0.06800,0.17600,   0.00,   0.00,   0.00,  0.00000,  0.00000,  0.00000,  0.00000,1,1,   0.0,   1,1.0000,   0,1.0000,   0,1.0000,   0,1.0000
    56,    51,'1 ', 0.01700, 0.09200,0.15800,   0.00,   0.00,   0.00,  0.00000,  0.00000,  0.00000,  0.00000,1,1,   0.0,   1,1.0000,   0,1.0000,   0,1.0000,   0,1.0000
    52,    55,'1 ', 0.03200, 0.16100,0.30600,   0.00,   0.00,   0.00,  0.00000,  0.00000,  0.00000,  0.00000,1,1,   0.0,   1,1.0000,   0,1.0000,   0,1.0000,   0,1.0000
    53,    56,'1 ', 0.03900, 0.17380,0.35800,   0.00,   0.00,   0.00,  0.00000,  0.00000,  0.00000,  0.00000,1,1,   0.0,   1,1.0000,   0,1.0000,   0,1.0000,   0,1.0000
    52,    58,'1 ', 0.00850, 0.05760,0.14900,   0.00,   0.00,   0.00,  0.00000,  0.00000,  0.00000,  0.00000,1,1,   0.0,   1,1.0000,   0,1.0000,   0,1.0000,   0,1.0000
    58,    53,'1 ', 0.01190, 0.10080,0.20900,   0.00,   0.00,   0.00,  0.00000,  0.00000,  0.00000,  0.00000,1,1,   0.0,   1,1.0000,   0,1.0000,   0,1.0000,   0,1.0000
    65,    61,'1 ', 0.01000, 0.06800,0.17600,   0.00,   0.00,   0.00,  0.00000,  0.00000,  0.00000,  0.00000,1,1,   0.0,   1,1.0000,   0,1.0000,   0,1.0000,   0,1.0000
    66,    61,'1 ', 0.01700, 0.09200,0.15800,   0.00,   0.00,   0.00,  0.00000,  0.00000,  0.00000,  0.00000,1,1,   0.0,   1,1.0000,   0,1.0000,   0,1.0000,   0,1.0000
    62,    65,'1 ', 0.03200, 0.16100,0.30600,   0.00,   0.00,   0.00,  0.00000,  0.00000,  0.00000,  0.00000,1,1,   0.0,   1,1.0000,   0,1.0000,   0,1.0000,   0,1.0000
    63,    66,'1 ', 0.03900, 0.17380,0.35800,   0.00,   0.00,   0.00,  0.00000,  0.00000,  0.00000,  0.00000,1,1,   0.0,   1,1.0000,   0,1.0000,   0,1.0000,   0,1.0000
    62,    68,'1 ', 0.00850, 0.05760,0.14900,   0.00,   0.00,   0.00,  0.00000,  0.00000,  0.00000,  0.00000,1,1,   0.0,   1,1.0000,   0,1.0000,   0,1.0000,   0,1.0000
    68,    63,'1 ', 0.01190, 0.10080,0.20900,   0.00,   0.00,   0.00,  0.00000,  0.00000,  0.00000,  0.00000,1,1,   0.0,   1,1.0000,   0,1.0000,   0,1.0000,   0,1.0000
    75,    71,'1 ', 0.01000, 0.06800,0.17600,   0.00,   0.00,   0.00,  0.00000,  0.00000,  0.00000,  0.00000,1,1,   0.0,   1,1.0000,   0,1.0000,   0,1.0000,   0,1.0000
    76,    71,'1 ', 0.01700, 0.09200,0.15800,   0.00,   0.00,   0.00,  0.00000,  0.00000,  0.00000,  0.00000,1,1,   0.0,   1,1.0000,   0,1.0000,   0,1.0000,   0,1.0000
    72,    75,'1 ', 0.03200, 0.16100,0.30600,   0.00,   0.00,   0.00,  0.00000,  0.00000,  0.00000,  0.00000,1,1,   0.0,   1,1.0000,   0,1.0000,   0,1.0000,   0,1.0000
    73,    76,'1 ', 0.03900, 0.17380,0.35800,   0.00,   0.00,   0.00,  0.00000,  0.00000,  0.00000,  0.00000,1,1,   0.0,   1,1.0000,   0,1.0000,   0,1.0000,   0,1.0000
    72,    78,'1 ', 0.00850, 0.05760,0.14900,   0.00,   0.00,   0.00,  0.00000,  0.00000,  0.00000,  0.00000,1,1,   0.0,   1,1.0000,   0,1.0000,   0,1.0000,   0,1.0000
    78,    73,'1 ', 0.01190, 0.10080,0.20900,   0.00,   0.00,   0.00,  0.00000,  0.00000,  0.00000,  0.00000,1,1,   0.0,   1,1.0000,   0,1.0000,   0,1.0000,   0,1.0000
    5,    25,'1 ', 0.00850, 0.05760,0.14900,   0.00,   0.00,   0.00,  0.00000,  0.00000,  0.00000,  0.00000,1,1,   0.0,   1,1.0000,   0,1.0000,   0,1.0000,   0,1.0000
    6,    65,'1 ', 0.00850, 0.05760,0.14900,   0.00,   0.00,   0.00,  0.00000,  0.00000,  0.00000,  0.00000,1,1,   0.0,   1,1.0000,   0,1.0000,   0,1.0000,   0,1.0000
    15,    55,'1 ', 0.00850, 0.05760,0.14900,   0.00,   0.00,   0.00,  0.00000,  0.00000,  0.00000,  0.00000,1,1,   0.0,   1,1.0000,   0,1.0000,   0,1.0000,   0,1.0000
    16,    75,'1 ', 0.00850, 0.05760,0.14900,   0.00,   0.00,   0.00,  0.00000,  0.00000,  0.00000,  0.00000,1,1,   0.0,   1,1.0000,   0,1.0000,   0,1.0000,   0,1.0000
    26,    45,'1 ', 0.00850, 0.05760,0.14900,   0.00,   0.00,   0.00,  0.00000,  0.00000,  0.00000,  0.00000,1,1,   0.0,   1,1.0000,   0,1.0000,   0,1.0000,   0,1.0000
    35,    46,'1 ', 0.00850, 0.05760,0.14900,   0.00,   0.00,   0.00,  0.00000,  0.00000,  0.00000,  0.00000,1,1,   0.0,   1,1.0000,   0,1.0000,   0,1.0000,   0,1.0000
    36,    56,'1 ', 0.00850, 0.05760,0.14900,   0.00,   0.00,   0.00,  0.00000,  0.00000,  0.00000,  0.00000,1,1,   0.0,   1,1.0000,   0,1.0000,   0,1.0000,   0,1.0000
    66,    76,'1 ', 0.00850, 0.05760,0.14900,   0.00,   0.00,   0.00,  0.00000,  0.00000,  0.00000,  0.00000,1,1,   0.0,   1,1.0000,   0,1.0000,   0,1.0000,   0,1.0000
0 / END OF BRANCH DATA, BEGIN TRANSFORMER DATA
0 / END OF TRANSFORMER DATA, BEGIN AREA DATA
   1,    0,     0.000,     1.000,'1           '
0 / END OF AREA DATA, BEGIN TWO-TERMINAL DC DATA
0 / END OF TWO-TERMINAL DC DATA, BEGIN VOLTAGE SOURCE CONVERTER DATA
0 / END OF VOLTAGE SOURCE CONVERTER DATA, BEGIN IMPEDANCE CORRECTION DATA
0 / END OF IMPEDANCE CORRECTION DATA, BEGIN MULTI-TERMINAL DC DATA
0 / END OF MULTI-TERMINAL DC DATA, BEGIN MULTI-SECTION LINE DATA
0 / END OF MULTI-SECTION LINE DATA, BEGIN ZONE DATA
   1,'1       '
0 / END OF ZONE DATA, BEGIN INTER-AREA TRANSFER DATA
0 / END OF INTER-AREA TRANSFER DATA, BEGIN OWNER DATA
    1,'1'
0 / END OF OWNER DATA, BEGIN FACTS CONTROL DEVICE DATA
0 / END OF FACTS CONTROL DEVICE DATA, BEGIN SWITCHED SHUNT DATA
0 /END OF SWITCHED SHUNT DATA, BEGIN GNE DEVICE DATA
0 /END OF GNE DEVICE DATA
Q
